<?xml version="1.0" encoding="UTF-8"?>

<!-- generated on 2023-10-24 10:49:22 by Eclipse SUMO netedit Version 1.15.0
<configuration xmlns:xsi="http://www.w3.org/2001/XMLSchema-instance" xsi:noNamespaceSchemaLocation="http://sumo.dlr.de/xsd/netconvertConfiguration.xsd">

    <input>
        <sumo-net-file value="C:\Users\HP\Sumo\beijing_sumo\sumo_beijing.net.xml"/>
    </input>

    <output>
        <output-file value="C:\Users\HP\Sumo\beijing_sumo\sumo_beijing.net.xml"/>
        <output.street-names value="true"/>
    </output>

    <processing>
        <geometry.min-radius.fix.railways value="false"/>
        <geometry.max-grade.fix value="false"/>
        <offset.disable-normalization value="true"/>
        <lefthand value="0"/>
    </processing>

    <junctions>
        <no-turnarounds value="true"/>
        <junctions.corner-detail value="5"/>
        <junctions.limit-turn-speed value="5.50"/>
        <rectangular-lane-cut value="0"/>
    </junctions>

    <pedestrian>
        <walkingareas value="0"/>
    </pedestrian>

    <netedit>
        <additional-files value="C:\Users\HP\Sumo\beijing_sumo\E1.additional.xml"/>
    </netedit>

</configuration>
-->

<net version="1.9" junctionCornerDetail="5" limitTurnSpeed="5.50" xmlns:xsi="http://www.w3.org/2001/XMLSchema-instance" xsi:noNamespaceSchemaLocation="http://sumo.dlr.de/xsd/net_file.xsd">

    <location netOffset="871.00,3161.00" convBoundary="488.00,162.00,2747.00,2762.00" origBoundary="-1030.00,-3420.00,2064.00,13.00" projParameter="!"/>

    <edge id=":0_0" function="internal">
        <lane id=":0_0_0" index="0" speed="14.42" length="45.92" shape="2254.48,377.37 2260.31,387.57 2261.36,397.73 2257.63,407.84 2249.12,417.92"/>
        <lane id=":0_0_1" index="1" speed="13.64" length="41.02" shape="2251.99,379.38 2257.13,388.43 2258.01,397.48 2254.62,406.52 2246.95,415.57"/>
        <lane id=":0_0_2" index="2" speed="12.82" length="36.11" shape="2249.49,381.38 2253.96,389.29 2254.66,397.23 2251.60,405.21 2244.78,413.21"/>
    </edge>
    <edge id=":0_3" function="internal">
        <lane id=":0_3_0" index="0" speed="3.65" length="4.67" shape="2249.49,381.38 2249.62,382.82 2249.25,383.63 2248.38,383.82 2247.00,383.39"/>
    </edge>
    <edge id=":0_4" function="internal">
        <lane id=":0_4_0" index="0" speed="9.38" length="18.88" shape="2238.28,406.16 2241.52,402.19 2242.81,398.07 2242.14,393.81 2239.52,389.41"/>
        <lane id=":0_4_1" index="1" speed="10.48" length="23.79" shape="2240.44,408.51 2244.54,403.51 2246.16,398.32 2245.32,392.95 2242.01,387.40"/>
        <lane id=":0_4_2" index="2" speed="11.47" length="28.70" shape="2242.61,410.86 2247.55,404.83 2249.51,398.57 2248.50,392.09 2244.51,385.40"/>
    </edge>
    <edge id=":0_7" function="internal">
        <lane id=":0_7_0" index="0" speed="3.65" length="1.32" shape="2242.61,410.86 2243.92,410.66"/>
    </edge>
    <edge id=":0_8" function="internal">
        <lane id=":0_8_0" index="0" speed="3.65" length="3.35" shape="2243.92,410.66 2244.04,410.64 2244.88,410.95 2245.12,411.81 2244.78,413.21"/>
    </edge>
    <edge id=":12_0" function="internal">
        <lane id=":12_0_0" index="0" speed="3.90" length="2.60" shape="757.28,505.04 756.76,504.55 756.21,504.35 755.63,504.43 755.02,504.80"/>
        <lane id=":12_0_1" index="1" speed="6.08" length="7.79" shape="759.78,503.04 758.22,501.58 756.58,500.97 754.83,501.22 753.00,502.32"/>
    </edge>
    <edge id=":12_2" function="internal">
        <lane id=":12_2_0" index="0" speed="3.65" length="1.30" shape="759.78,503.04 759.67,501.75"/>
    </edge>
    <edge id=":12_6" function="internal">
        <lane id=":12_6_0" index="0" speed="3.65" length="3.37" shape="759.67,501.75 759.66,501.61 760.03,500.80 760.91,500.61 762.28,501.05"/>
    </edge>
    <edge id=":12_3" function="internal">
        <lane id=":12_3_0" index="0" speed="8.96" length="18.18" shape="748.96,497.36 753.24,494.79 757.30,494.21 761.15,495.63 764.78,499.05"/>
        <lane id=":12_3_1" index="1" speed="7.65" length="12.99" shape="750.98,499.84 754.04,498.00 756.94,497.59 759.69,498.61 762.28,501.05"/>
    </edge>
    <edge id=":12_5" function="internal">
        <lane id=":12_5_0" index="0" speed="3.65" length="1.44" shape="750.98,499.84 752.42,499.70"/>
    </edge>
    <edge id=":12_7" function="internal">
        <lane id=":12_7_0" index="0" speed="3.65" length="3.23" shape="752.42,499.70 753.23,500.07 753.43,500.94 753.00,502.32"/>
    </edge>
    <edge id=":14_0" function="internal">
        <lane id=":14_0_0" index="0" speed="7.79" length="17.65" shape="2203.81,989.74 2201.84,984.94 2199.04,982.62 2195.40,982.77 2190.93,985.40"/>
        <lane id=":14_0_1" index="1" speed="8.48" length="21.17" shape="2203.81,989.74 2201.39,983.52 2198.10,980.30 2193.96,980.09 2188.94,982.89"/>
    </edge>
    <edge id=":14_2" function="internal">
        <lane id=":14_2_0" index="0" speed="34.09" length="39.85" shape="2206.91,988.94 2203.64,977.48 2200.34,969.34 2196.13,962.48 2190.11,954.89"/>
        <lane id=":14_2_1" index="1" speed="34.71" length="39.85" shape="2210.01,988.14 2206.56,976.20 2203.05,967.65 2198.66,960.53 2192.57,952.84"/>
        <lane id=":14_2_2" index="2" speed="35.32" length="39.85" shape="2213.11,987.34 2209.53,975.08 2205.80,966.11 2201.21,958.63 2195.02,950.79"/>
    </edge>
    <edge id=":14_5" function="internal">
        <lane id=":14_5_0" index="0" speed="3.65" length="1.44" shape="2213.11,987.34 2213.58,985.98"/>
    </edge>
    <edge id=":14_16" function="internal">
        <lane id=":14_16_0" index="0" speed="3.65" length="3.23" shape="2213.58,985.98 2214.26,985.39 2215.13,985.58 2216.21,986.54"/>
    </edge>
    <edge id=":14_6" function="internal">
        <lane id=":14_6_0" index="0" speed="37.39" length="44.47" shape="2202.38,944.63 2209.35,952.93 2215.68,961.44 2221.14,971.42 2225.50,984.14"/>
        <lane id=":14_6_1" index="1" speed="36.83" length="44.47" shape="2199.93,946.68 2206.80,954.79 2212.90,962.86 2218.14,972.41 2222.40,984.94"/>
        <lane id=":14_6_2" index="2" speed="36.49" length="44.47" shape="2199.93,946.68 2206.32,954.91 2211.35,963.26 2215.52,973.09 2219.31,985.74"/>
        <lane id=":14_6_3" index="3" speed="35.91" length="44.47" shape="2197.47,948.73 2203.76,956.77 2208.58,964.69 2212.53,974.08 2216.21,986.54"/>
    </edge>
    <edge id=":14_10" function="internal">
        <lane id=":14_10_0" index="0" speed="3.65" length="1.44" shape="2197.47,948.73 2197.63,950.17"/>
    </edge>
    <edge id=":14_17" function="internal">
        <lane id=":14_17_0" index="0" speed="3.65" length="3.23" shape="2197.63,950.17 2197.27,950.99 2196.40,951.19 2195.02,950.79"/>
    </edge>
    <edge id=":14_11" function="internal">
        <lane id=":14_11_0" index="0" speed="10.25" length="24.46" shape="2182.99,975.36 2188.91,969.75 2192.07,964.47 2192.47,959.52 2190.11,954.89"/>
        <lane id=":14_11_1" index="1" speed="11.25" length="29.68" shape="2184.98,977.87 2191.89,971.21 2195.46,964.82 2195.69,958.70 2192.57,952.84"/>
    </edge>
    <edge id=":14_13" function="internal">
        <lane id=":14_13_0" index="0" speed="12.07" length="44.31" shape="2184.98,977.87 2196.13,971.31 2206.07,970.15 2214.04,974.81 2219.31,985.74"/>
        <lane id=":14_13_1" index="1" speed="11.15" length="37.60" shape="2186.96,980.38 2196.44,974.74 2204.91,973.57 2211.72,977.35 2216.21,986.54"/>
    </edge>
    <edge id=":14_15" function="internal">
        <lane id=":14_15_0" index="0" speed="3.65" length="1.44" shape="2186.96,980.38 2188.40,980.26"/>
    </edge>
    <edge id=":14_18" function="internal">
        <lane id=":14_18_0" index="0" speed="3.65" length="3.23" shape="2188.40,980.26 2189.21,980.64 2189.39,981.52 2188.94,982.89"/>
    </edge>
    <edge id=":15_0" function="internal">
        <lane id=":15_0_0" index="0" speed="12.50" length="39.00" shape="2685.25,1313.21 2696.02,1315.94 2701.95,1321.22 2703.79,1329.41 2702.28,1340.87"/>
        <lane id=":15_0_1" index="1" speed="11.58" length="33.31" shape="2684.88,1316.39 2694.04,1318.75 2699.01,1323.31 2700.49,1330.36 2699.16,1340.17"/>
    </edge>
    <edge id=":15_2" function="internal">
        <lane id=":15_2_0" index="0" speed="8.73" length="18.44" shape="2692.91,1338.78 2693.30,1333.67 2691.90,1329.82 2688.73,1327.24 2683.77,1325.93"/>
        <lane id=":15_2_1" index="1" speed="9.89" length="23.99" shape="2696.03,1339.48 2696.54,1332.82 2694.72,1327.82 2690.59,1324.46 2684.14,1322.75"/>
        <lane id=":15_2_2" index="2" speed="10.44" length="26.82" shape="2696.03,1339.48 2696.82,1331.45 2695.16,1325.45 2691.06,1321.49 2684.51,1319.57"/>
    </edge>
    <edge id=":17_0" function="internal">
        <lane id=":17_0_0" index="0" speed="12.31" length="24.51" shape="2311.80,1292.38 2305.90,1292.86 2300.74,1295.14 2296.31,1299.21 2292.61,1305.08"/>
    </edge>
    <edge id=":17_1" function="internal">
        <lane id=":17_1_0" index="0" speed="44.11" length="60.26" shape="2311.80,1292.38 2298.49,1289.89 2282.81,1284.82 2267.46,1278.59 2255.16,1272.62"/>
    </edge>
    <edge id=":17_2" function="internal">
        <lane id=":17_2_0" index="0" speed="13.20" length="28.30" shape="2312.01,1289.18 2305.12,1289.73 2299.11,1292.32 2293.98,1296.97 2289.74,1303.66"/>
    </edge>
    <edge id=":17_3" function="internal">
        <lane id=":17_3_0" index="0" speed="43.60" length="58.89" shape="2312.01,1289.18 2298.91,1286.75 2283.68,1281.82 2268.79,1275.72 2256.69,1269.81"/>
    </edge>
    <edge id=":17_4" function="internal">
        <lane id=":17_4_0" index="0" speed="17.05" length="51.58" shape="2312.22,1285.99 2301.82,1283.16 2293.10,1276.12 2286.06,1264.89 2280.70,1249.46"/>
    </edge>
    <edge id=":17_5" function="internal">
        <lane id=":17_5_0" index="0" speed="3.65" length="4.67" shape="2312.22,1285.99 2311.07,1285.11 2310.73,1284.29 2311.18,1283.52 2312.43,1282.80"/>
    </edge>
    <edge id=":17_6" function="internal">
        <lane id=":17_6_0" index="0" speed="15.10" length="40.33" shape="2293.09,1246.26 2297.47,1260.58 2302.18,1270.90 2307.24,1277.25 2312.64,1279.61"/>
    </edge>
    <edge id=":17_7" function="internal">
        <lane id=":17_7_0" index="0" speed="27.21" length="60.00" shape="2293.09,1246.26 2296.37,1261.10 2298.04,1276.20 2297.12,1291.04 2292.61,1305.08"/>
    </edge>
    <edge id=":17_8" function="internal">
        <lane id=":17_8_0" index="0" speed="15.81" length="44.25" shape="2289.99,1247.06 2294.77,1262.37 2300.10,1273.42 2305.98,1280.23 2312.43,1282.80"/>
    </edge>
    <edge id=":17_9" function="internal">
        <lane id=":17_9_0" index="0" speed="26.72" length="56.73" shape="2289.99,1247.06 2293.30,1261.55 2295.05,1275.90 2294.21,1289.97 2289.74,1303.66"/>
        <lane id=":17_9_1" index="1" speed="26.21" length="56.73" shape="2286.90,1247.86 2290.24,1262.00 2292.07,1275.59 2291.30,1288.91 2286.87,1302.25"/>
    </edge>
    <edge id=":17_11" function="internal">
        <lane id=":17_11_0" index="0" speed="10.72" length="41.40" shape="2283.80,1248.66 2283.80,1259.84 2278.41,1267.31 2269.31,1270.04 2258.22,1267.00"/>
    </edge>
    <edge id=":17_12" function="internal">
        <lane id=":17_12_0" index="0" speed="3.65" length="4.67" shape="2283.80,1248.66 2283.32,1250.02 2282.65,1250.61 2281.77,1250.42 2280.70,1249.46"/>
    </edge>
    <edge id=":17_13" function="internal">
        <lane id=":17_13_0" index="0" speed="7.09" length="17.17" shape="2262.80,1258.57 2267.84,1260.60 2270.96,1260.15 2272.15,1257.24 2271.40,1251.85"/>
        <lane id=":17_13_1" index="1" speed="7.91" length="21.80" shape="2262.80,1258.57 2269.48,1261.33 2273.66,1261.00 2275.33,1257.57 2274.50,1251.05"/>
    </edge>
    <edge id=":17_15" function="internal">
        <lane id=":17_15_0" index="0" speed="42.39" length="55.64" shape="2261.27,1261.38 2273.42,1267.65 2288.05,1274.53 2302.08,1280.18 2312.43,1282.80"/>
    </edge>
    <edge id=":17_16" function="internal">
        <lane id=":17_16_0" index="0" speed="14.66" length="48.57" shape="2259.74,1264.19 2273.77,1273.28 2282.49,1282.42 2285.90,1291.60 2284.00,1300.84"/>
    </edge>
    <edge id=":17_17" function="internal">
        <lane id=":17_17_0" index="0" speed="3.65" length="4.67" shape="2259.74,1264.19 2260.42,1265.47 2260.38,1266.36 2259.65,1266.87 2258.22,1267.00"/>
    </edge>
    <edge id=":17_18" function="internal">
        <lane id=":17_18_0" index="0" speed="11.79" length="31.06" shape="2272.51,1295.18 2273.34,1289.89 2270.73,1284.37 2264.66,1278.61 2255.16,1272.62"/>
        <lane id=":17_18_1" index="1" speed="13.03" length="38.14" shape="2275.39,1296.59 2277.26,1288.75 2275.03,1281.20 2268.68,1273.95 2258.22,1267.00"/>
    </edge>
    <edge id=":17_20" function="internal">
        <lane id=":17_20_0" index="0" speed="24.10" length="48.06" shape="2275.39,1296.59 2279.68,1284.63 2280.13,1274.36 2277.99,1263.82 2274.50,1251.05"/>
        <lane id=":17_20_1" index="1" speed="24.64" length="48.06" shape="2278.26,1298.01 2282.58,1285.70 2283.11,1274.67 2281.05,1263.36 2277.60,1250.26"/>
    </edge>
    <edge id=":17_22" function="internal">
        <lane id=":17_22_0" index="0" speed="15.93" length="41.57" shape="2278.26,1298.01 2284.10,1289.35 2291.78,1283.40 2301.29,1280.15 2312.64,1279.61"/>
        <lane id=":17_22_1" index="1" speed="15.20" length="37.78" shape="2281.13,1299.42 2286.42,1291.60 2293.41,1286.22 2302.08,1283.29 2312.43,1282.80"/>
    </edge>
    <edge id=":17_24" function="internal">
        <lane id=":17_24_0" index="0" speed="3.65" length="4.67" shape="2281.13,1299.42 2282.37,1298.70 2283.27,1298.69 2283.81,1299.41 2284.00,1300.84"/>
    </edge>
    <edge id=":18_0" function="internal">
        <lane id=":18_0_0" index="0" speed="60.00" length="0.24" shape="2504.32,1304.97 2504.23,1304.97"/>
        <lane id=":18_0_1" index="1" speed="60.00" length="0.24" shape="2504.69,1301.80 2504.44,1301.77"/>
        <lane id=":18_0_2" index="2" speed="60.00" length="0.24" shape="2505.06,1298.62 2504.65,1298.58"/>
    </edge>
    <edge id=":18_3" function="internal">
        <lane id=":18_3_0" index="0" speed="60.00" length="0.65" shape="2505.07,1292.19 2505.80,1292.26"/>
        <lane id=":18_3_1" index="1" speed="60.00" length="0.65" shape="2504.86,1295.39 2505.43,1295.44"/>
    </edge>
    <edge id=":20_0" function="internal">
        <lane id=":20_0_0" index="0" speed="9.29" length="14.07" shape="2161.84,1573.08 2159.11,1570.58 2156.08,1569.17 2152.76,1568.86 2149.14,1569.63"/>
        <lane id=":20_0_1" index="1" speed="10.44" length="17.95" shape="2164.28,1571.01 2160.79,1567.82 2156.94,1566.02 2152.70,1565.62 2148.08,1566.62"/>
    </edge>
    <edge id=":20_2" function="internal">
        <lane id=":20_2_0" index="0" speed="14.03" length="31.47" shape="2164.28,1571.01 2159.02,1563.46 2156.23,1556.11 2155.91,1548.96 2158.04,1542.02"/>
        <lane id=":20_2_1" index="1" speed="13.20" length="27.75" shape="2166.72,1568.94 2162.00,1562.20 2159.46,1555.71 2159.10,1549.45 2160.91,1543.44"/>
    </edge>
    <edge id=":20_4" function="internal">
        <lane id=":20_4_0" index="0" speed="3.65" length="4.67" shape="2166.72,1568.94 2166.55,1567.50 2166.90,1566.68 2167.77,1566.47 2169.16,1566.87"/>
    </edge>
    <edge id=":20_5" function="internal">
        <lane id=":20_5_0" index="0" speed="9.68" length="14.61" shape="2172.40,1549.09 2171.13,1552.72 2170.98,1556.20 2171.95,1559.54 2174.04,1562.73"/>
    </edge>
    <edge id=":20_6" function="internal">
        <lane id=":20_6_0" index="0" speed="18.75" length="32.39" shape="2172.40,1549.09 2167.93,1557.45 2163.69,1562.65 2157.99,1566.21 2149.14,1569.63"/>
    </edge>
    <edge id=":20_7" function="internal">
        <lane id=":20_7_0" index="0" speed="10.80" length="18.35" shape="2169.53,1547.68 2167.94,1552.23 2167.76,1556.60 2168.98,1560.79 2171.60,1564.80"/>
    </edge>
    <edge id=":20_8" function="internal">
        <lane id=":20_8_0" index="0" speed="18.01" length="29.87" shape="2169.53,1547.68 2165.41,1555.38 2161.49,1560.18 2156.24,1563.46 2148.08,1566.62"/>
        <lane id=":20_8_1" index="1" speed="17.25" length="27.34" shape="2166.65,1546.26 2162.88,1553.32 2159.30,1557.71 2154.49,1560.71 2147.02,1563.60"/>
        <lane id=":20_8_2" index="2" speed="16.44" length="24.82" shape="2163.78,1544.85 2160.36,1551.25 2157.11,1555.23 2152.74,1557.96 2145.96,1560.58"/>
    </edge>
    <edge id=":20_11" function="internal">
        <lane id=":20_11_0" index="0" speed="3.65" length="4.67" shape="2163.78,1544.85 2162.54,1545.57 2161.64,1545.58 2161.10,1544.87 2160.91,1543.44"/>
    </edge>
    <edge id=":20_12" function="internal">
        <lane id=":20_12_0" index="0" speed="12.73" length="14.72" shape="2141.71,1548.50 2145.74,1546.95 2148.33,1545.34 2150.27,1542.99 2152.30,1539.19"/>
        <lane id=":20_12_1" index="1" speed="13.76" length="17.24" shape="2142.78,1551.52 2147.49,1549.70 2150.53,1547.82 2152.79,1545.05 2155.17,1540.61"/>
        <lane id=":20_12_2" index="2" speed="14.71" length="19.77" shape="2143.84,1554.54 2149.24,1552.45 2152.72,1550.29 2155.31,1547.12 2158.04,1542.02"/>
    </edge>
    <edge id=":20_15" function="internal">
        <lane id=":20_15_0" index="0" speed="13.73" length="10.92" shape="2143.84,1554.54 2151.08,1553.24 2154.58,1553.88"/>
        <lane id=":20_15_1" index="1" speed="12.88" length="3.65" shape="2144.90,1557.56 2148.49,1556.94"/>
    </edge>
    <edge id=":20_17" function="internal">
        <lane id=":20_17_0" index="0" speed="3.65" length="1.44" shape="2144.90,1557.56 2146.30,1557.92"/>
    </edge>
    <edge id=":20_18" function="internal">
        <lane id=":20_18_0" index="0" speed="13.73" length="20.68" shape="2154.58,1553.88 2158.12,1554.52 2164.96,1558.37 2171.60,1564.80"/>
    </edge>
    <edge id=":20_19" function="internal">
        <lane id=":20_19_0" index="0" speed="12.88" length="24.08" shape="2148.49,1556.94 2151.14,1556.48 2157.27,1557.67 2163.27,1561.13 2169.16,1566.87"/>
    </edge>
    <edge id=":20_20" function="internal">
        <lane id=":20_20_0" index="0" speed="3.65" length="3.23" shape="2146.30,1557.92 2146.94,1558.54 2146.83,1559.43 2145.96,1560.58"/>
    </edge>
    <edge id=":21_0" function="internal">
        <lane id=":21_0_0" index="0" speed="9.01" length="18.69" shape="1767.70,840.49 1763.93,836.97 1759.98,835.53 1755.83,836.18 1751.49,838.91"/>
        <lane id=":21_0_1" index="1" speed="10.14" length="23.96" shape="1770.19,838.49 1765.37,833.97 1760.30,832.13 1754.98,832.97 1749.42,836.47"/>
    </edge>
    <edge id=":21_2" function="internal">
        <lane id=":21_2_0" index="0" speed="12.08" length="34.68" shape="1770.19,838.49 1764.35,829.36 1762.31,821.26 1764.07,814.20 1769.64,808.16"/>
        <lane id=":21_2_1" index="1" speed="11.60" length="31.92" shape="1770.19,838.49 1765.22,830.46 1763.79,823.16 1765.89,816.58 1771.54,810.73"/>
    </edge>
    <edge id=":21_4" function="internal">
        <lane id=":21_4_0" index="0" speed="3.65" length="4.67" shape="1770.19,838.49 1770.06,837.05 1770.44,836.24 1771.31,836.05 1772.69,836.48"/>
    </edge>
    <edge id=":21_5" function="internal">
        <lane id=":21_5_0" index="0" speed="8.96" length="18.61" shape="1777.25,818.44 1773.61,822.05 1772.05,825.92 1772.57,830.07 1775.18,834.48"/>
    </edge>
    <edge id=":21_6" function="internal">
        <lane id=":21_6_0" index="0" speed="60.00" length="33.12" shape="1777.25,818.44 1751.49,838.91"/>
        <lane id=":21_6_1" index="1" speed="60.00" length="33.12" shape="1775.35,815.87 1749.42,836.47"/>
        <lane id=":21_6_2" index="2" speed="60.00" length="33.12" shape="1773.44,813.30 1747.34,834.04"/>
    </edge>
    <edge id=":21_9" function="internal">
        <lane id=":21_9_0" index="0" speed="3.65" length="4.67" shape="1773.44,813.30 1772.00,813.37 1771.21,812.97 1771.05,812.08 1771.54,810.73"/>
    </edge>
    <edge id=":21_10" function="internal">
        <lane id=":21_10_0" index="0" speed="60.00" length="33.89" shape="1741.11,826.73 1767.73,805.58"/>
        <lane id=":21_10_1" index="1" speed="60.00" length="33.89" shape="1743.19,829.17 1769.64,808.16"/>
    </edge>
    <edge id=":21_12" function="internal">
        <lane id=":21_12_0" index="0" speed="11.64" length="31.91" shape="1745.27,831.60 1752.21,827.45 1759.10,826.88 1765.92,829.89 1772.69,836.48"/>
    </edge>
    <edge id=":21_13" function="internal">
        <lane id=":21_13_0" index="0" speed="3.65" length="4.67" shape="1745.27,831.60 1746.70,831.43 1747.52,831.78 1747.74,832.65 1747.34,834.04"/>
    </edge>
    <edge id=":22_0" function="internal">
        <lane id=":22_0_0" index="0" speed="11.93" length="23.60" shape="2018.69,1144.09 2012.17,1141.28 2006.31,1140.31 2001.10,1141.16 1996.55,1143.84"/>
    </edge>
    <edge id=":22_1" function="internal">
        <lane id=":22_1_0" index="0" speed="41.85" length="42.06" shape="2018.69,1144.09 2009.22,1137.58 2000.76,1129.66 1993.60,1121.63 1988.02,1114.76"/>
        <lane id=":22_1_1" index="1" speed="41.24" length="42.06" shape="2020.22,1141.28 2010.90,1134.90 2002.77,1127.26 1995.94,1119.50 1990.51,1112.76"/>
    </edge>
    <edge id=":22_3" function="internal">
        <lane id=":22_3_0" index="0" speed="10.66" length="34.03" shape="2021.74,1138.47 2014.42,1132.51 2012.08,1125.72 2014.44,1118.53 2021.19,1111.37"/>
    </edge>
    <edge id=":22_4" function="internal">
        <lane id=":22_4_0" index="0" speed="3.65" length="4.67" shape="2021.74,1138.47 2021.07,1137.19 2021.10,1136.30 2021.84,1135.78 2023.27,1135.65"/>
    </edge>
    <edge id=":22_5" function="internal">
        <lane id=":22_5_0" index="0" speed="7.82" length="17.68" shape="2025.16,1116.40 2021.58,1120.14 2020.58,1123.66 2022.16,1126.95 2026.33,1130.03"/>
    </edge>
    <edge id=":22_6" function="internal">
        <lane id=":22_6_0" index="0" speed="60.00" length="39.59" shape="2025.16,1116.40 1994.48,1141.41"/>
    </edge>
    <edge id=":22_7" function="internal">
        <lane id=":22_7_0" index="0" speed="12.70" length="37.14" shape="2023.18,1113.88 2013.85,1119.57 2005.30,1121.28 1997.52,1119.01 1990.51,1112.76"/>
    </edge>
    <edge id=":22_8" function="internal">
        <lane id=":22_8_0" index="0" speed="3.65" length="4.67" shape="2023.18,1113.88 2021.74,1114.00 2020.93,1113.62 2020.75,1112.75 2021.19,1111.37"/>
    </edge>
    <edge id=":22_9" function="internal">
        <lane id=":22_9_0" index="0" speed="10.39" length="24.52" shape="1995.50,1108.75 1999.58,1111.99 2004.56,1112.67 2010.44,1110.79 2017.23,1106.35"/>
    </edge>
    <edge id=":22_10" function="internal">
        <lane id=":22_10_0" index="0" speed="39.57" length="38.16" shape="1995.50,1108.75 2000.87,1114.80 2007.56,1121.04 2015.54,1127.15 2024.80,1132.84"/>
    </edge>
    <edge id=":22_11" function="internal">
        <lane id=":22_11_0" index="0" speed="11.90" length="31.93" shape="1993.00,1110.76 1997.92,1118.69 1999.46,1126.04 1997.62,1132.80 1992.40,1138.97"/>
    </edge>
    <edge id=":22_12" function="internal">
        <lane id=":22_12_0" index="0" speed="3.65" length="4.67" shape="1993.00,1110.76 1993.13,1112.19 1992.76,1113.01 1991.89,1113.20 1990.51,1112.76"/>
    </edge>
    <edge id=":22_13" function="internal">
        <lane id=":22_13_0" index="0" speed="9.33" length="19.26" shape="1986.18,1131.66 1989.73,1127.68 1991.21,1123.54 1990.64,1119.24 1988.02,1114.76"/>
    </edge>
    <edge id=":22_14" function="internal">
        <lane id=":22_14_0" index="0" speed="60.00" length="39.99" shape="1986.18,1131.66 2017.23,1106.35"/>
        <lane id=":22_14_1" index="1" speed="60.00" length="39.99" shape="1988.26,1134.10 2019.21,1108.86"/>
    </edge>
    <edge id=":22_16" function="internal">
        <lane id=":22_16_0" index="0" speed="14.49" length="35.19" shape="1990.33,1136.53 1997.44,1132.18 2005.30,1130.58 2013.91,1131.74 2023.27,1135.65"/>
    </edge>
    <edge id=":22_17" function="internal">
        <lane id=":22_17_0" index="0" speed="3.65" length="4.67" shape="1990.33,1136.53 1991.76,1136.36 1992.59,1136.71 1992.80,1137.58 1992.40,1138.97"/>
    </edge>
    <edge id=":23_0" function="internal">
        <lane id=":23_0_0" index="0" speed="7.82" length="17.68" shape="1769.67,1352.82 1767.28,1348.22 1764.27,1346.14 1760.64,1346.58 1756.39,1349.54"/>
    </edge>
    <edge id=":23_1" function="internal">
        <lane id=":23_1_0" index="0" speed="53.33" length="42.40" shape="1769.67,1352.82 1765.80,1341.98 1761.71,1331.35 1757.37,1321.92 1752.77,1314.68"/>
        <lane id=":23_1_1" index="1" speed="54.02" length="42.40" shape="1772.69,1351.75 1768.74,1340.76 1764.46,1329.81 1759.93,1320.05 1755.25,1312.66"/>
    </edge>
    <edge id=":23_3" function="internal">
        <lane id=":23_3_0" index="0" speed="15.60" length="41.08" shape="1775.71,1350.67 1772.95,1339.25 1773.25,1329.15 1776.62,1320.38 1783.05,1312.95"/>
    </edge>
    <edge id=":23_4" function="internal">
        <lane id=":23_4_0" index="0" speed="3.65" length="4.67" shape="1775.71,1350.67 1776.06,1349.28 1776.68,1348.63 1777.57,1348.74 1778.72,1349.60"/>
    </edge>
    <edge id=":23_5" function="internal">
        <lane id=":23_5_0" index="0" speed="13.66" length="31.32" shape="1789.27,1320.26 1783.74,1326.33 1780.64,1333.07 1779.97,1340.47 1781.74,1348.53"/>
    </edge>
    <edge id=":23_6" function="internal">
        <lane id=":23_6_0" index="0" speed="60.00" length="44.16" shape="1789.27,1320.26 1756.39,1349.54"/>
        <lane id=":23_6_1" index="1" speed="60.00" length="44.16" shape="1787.19,1317.82 1754.22,1347.18"/>
        <lane id=":23_6_2" index="2" speed="60.00" length="44.16" shape="1785.12,1315.38 1752.05,1344.83"/>
    </edge>
    <edge id=":23_9" function="internal">
        <lane id=":23_9_0" index="0" speed="12.10" length="34.37" shape="1785.12,1315.38 1777.13,1320.42 1769.49,1321.65 1762.19,1319.06 1755.25,1312.66"/>
    </edge>
    <edge id=":23_10" function="internal">
        <lane id=":23_10_0" index="0" speed="3.65" length="4.67" shape="1785.12,1315.38 1783.69,1315.55 1782.86,1315.20 1782.65,1314.33 1783.05,1312.95"/>
    </edge>
    <edge id=":23_11" function="internal">
        <lane id=":23_11_0" index="0" speed="9.03" length="18.65" shape="1762.69,1306.59 1766.46,1310.07 1770.42,1311.47 1774.56,1310.81 1778.90,1308.07"/>
    </edge>
    <edge id=":23_12" function="internal">
        <lane id=":23_12_0" index="0" speed="56.06" length="45.72" shape="1762.69,1306.59 1769.19,1316.73 1774.51,1328.39 1778.68,1339.64 1781.74,1348.53"/>
        <lane id=":23_12_1" index="1" speed="55.41" length="45.72" shape="1760.21,1308.62 1766.63,1318.60 1771.76,1329.94 1775.75,1340.86 1778.72,1349.60"/>
    </edge>
    <edge id=":23_14" function="internal">
        <lane id=":23_14_0" index="0" speed="13.27" length="38.91" shape="1757.73,1310.64 1762.42,1318.97 1763.04,1327.45 1759.58,1336.07 1752.05,1344.83"/>
    </edge>
    <edge id=":23_15" function="internal">
        <lane id=":23_15_0" index="0" speed="3.65" length="4.67" shape="1757.73,1310.64 1757.86,1312.07 1757.50,1312.89 1756.62,1313.08 1755.25,1312.66"/>
    </edge>
    <edge id=":23_16" function="internal">
        <lane id=":23_16_0" index="0" speed="11.07" length="26.81" shape="1745.53,1337.78 1751.56,1331.19 1754.78,1325.14 1755.18,1319.64 1752.77,1314.68"/>
    </edge>
    <edge id=":23_17" function="internal">
        <lane id=":23_17_0" index="0" speed="60.00" length="44.54" shape="1745.53,1337.78 1778.90,1308.07"/>
        <lane id=":23_17_1" index="1" speed="60.00" length="44.54" shape="1747.71,1340.13 1780.97,1310.51"/>
        <lane id=":23_17_2" index="2" speed="60.00" length="44.54" shape="1749.88,1342.48 1783.05,1312.95"/>
    </edge>
    <edge id=":23_20" function="internal">
        <lane id=":23_20_0" index="0" speed="11.14" length="37.32" shape="1749.88,1342.48 1758.72,1336.68 1766.78,1336.01 1773.59,1340.35 1778.72,1349.60"/>
    </edge>
    <edge id=":23_21" function="internal">
        <lane id=":23_21_0" index="0" speed="3.65" length="4.67" shape="1749.88,1342.48 1751.30,1342.26 1752.14,1342.57 1752.39,1343.43 1752.05,1344.83"/>
    </edge>
    <edge id=":24_0" function="internal">
        <lane id=":24_0_0" index="0" speed="12.62" length="24.58" shape="1903.15,1656.14 1896.36,1659.19 1891.36,1662.95 1888.14,1667.42 1886.70,1672.59"/>
    </edge>
    <edge id=":24_1" function="internal">
        <lane id=":24_1_0" index="0" speed="24.58" length="60.63" shape="1903.15,1656.14 1892.03,1657.99 1878.68,1656.49 1863.09,1651.66 1845.28,1643.48"/>
    </edge>
    <edge id=":24_2" function="internal">
        <lane id=":24_2_0" index="0" speed="13.50" length="28.22" shape="1902.09,1653.12 1894.45,1656.60 1888.80,1660.95 1885.16,1666.18 1883.51,1672.28"/>
    </edge>
    <edge id=":24_3" function="internal">
        <lane id=":24_3_0" index="0" speed="24.05" length="58.02" shape="1902.09,1653.12 1891.62,1654.81 1878.90,1653.29 1863.95,1648.57 1846.76,1640.65"/>
        <lane id=":24_3_1" index="1" speed="23.51" length="55.42" shape="1901.03,1650.10 1891.20,1651.63 1879.13,1650.09 1864.81,1645.48 1848.23,1637.81"/>
    </edge>
    <edge id=":24_5" function="internal">
        <lane id=":24_5_0" index="0" speed="14.48" length="48.74" shape="1899.97,1647.08 1891.70,1647.29 1883.86,1641.97 1876.43,1631.10 1869.42,1614.71"/>
    </edge>
    <edge id=":24_6" function="internal">
        <lane id=":24_6_0" index="0" speed="3.65" length="4.67" shape="1899.97,1647.08 1898.57,1646.72 1897.93,1646.10 1898.04,1645.22 1898.91,1644.06"/>
    </edge>
    <edge id=":24_7" function="internal">
        <lane id=":24_7_0" index="0" speed="11.97" length="32.96" shape="1875.45,1612.57 1880.22,1623.83 1885.18,1631.32 1890.35,1635.05 1895.72,1635.01"/>
        <lane id=":24_7_1" index="1" speed="12.47" length="35.89" shape="1875.45,1612.57 1880.69,1625.15 1885.98,1633.58 1891.35,1637.88 1896.78,1638.02"/>
    </edge>
    <edge id=":24_9" function="internal">